
 OpenBabel09092216063D

  7  6  0  0  0  0  0  0  0  0999 V2000
   -4.1648    1.6368    0.0000 N   0  0  0  0  0  0  0  0  0  0  0  0
   -1.9956    1.9859    0.0000 C   0  0  0  0  0  0  0  0  0  0  0  0
   -4.6492    2.5068    0.2210 H   0  0  0  0  0  0  0  0  0  0  0  0
   -4.3957    0.9317    0.7000 H   0  0  0  0  0  0  0  0  0  0  0  0
   -1.7534    2.7255   -0.7343 H   0  0  0  0  0  0  0  0  0  0  0  0
   -1.4874    1.0733   -0.2318 H   0  0  0  0  0  0  0  0  0  0  0  0
   -1.6896    2.3291    0.9662 H   0  0  0  0  0  0  0  0  0  0  0  0
  1  2  1  0  0  0  0
  1  3  1  0  0  0  0
  1  4  1  0  0  0  0
  2  5  1  0  0  0  0
  2  6  1  0  0  0  0
  2  7  1  0  0  0  0
M  END
